31
-52.30695747
C 1.722692 -3.138503 0.610055
C 1.195706 -1.822203 1.102778
O 0.220389 -1.722854 1.851794
N 1.862795 -0.746995 0.661801
C 1.508567 0.621374 0.988163
C 0.302907 1.044388 0.127084
N -0.846868 0.477720 0.529260
C -1.999212 0.428663 -0.339809
C -3.307920 0.838572 0.353174
N -3.177654 1.407387 1.548229
C 2.711741 1.535130 0.784338
S 3.481334 1.319692 -0.862455
O 0.389436 1.821412 -0.814011
C -2.170857 -0.976228 -0.921113
S -0.719879 -1.506221 -1.886651
O -4.386075 0.647569 -0.195329
H 2.585008 -0.850505 -0.042280
H 1.202059 0.649227 2.041612
H 3.496454 1.300664 1.500742
H 2.416069 2.577720 0.884388
H 2.418779 1.726586 -1.545682
H -0.768215 -0.270496 1.222927
H -1.824080 1.148577 -1.151212
H -3.060926 -1.022049 -1.545601
H -2.254845 -1.705952 -0.114582
H -0.879181 -0.670245 -2.904716
H -4.003600 1.710052 2.040435
H -2.267815 1.559227 1.950622
H 2.805502 -3.172021 0.674316
H 1.287735 -3.944147 1.193731
H 1.427753 -3.260091 -0.431142
