29
-1198.975847617917
C 1.906806 1.637374 -0.231441
C 1.017541 2.655103 0.077501
C -0.343441 2.382335 0.201532
C -0.824662 1.086243 0.020057
C 0.093184 0.061401 -0.264564
C 1.456738 0.320924 -0.402060
F 1.459334 3.895406 0.243431
F -1.133715 3.400598 0.519130
C -2.268643 0.722767 0.188374
O -2.627321 -0.398845 0.461610
C -0.346342 -1.360792 -0.510409
O -0.084364 -2.135396 0.530408
C -0.463952 -3.506247 0.406412
O 2.285952 -0.679030 -0.746810
F 3.193541 1.927716 -0.381369
O -3.093937 1.734644 -0.008980
C -4.488092 1.459697 0.146184
O -0.824327 -1.742832 -1.547728
F 6.369465 -0.346950 -1.049404
H -5.004200 2.409589 -0.028659
H -4.810841 0.706982 -0.586385
H -4.693907 1.092888 1.161298
H 0.033307 -3.967311 -0.458296
H -0.148282 -3.995717 1.334044
H -1.553769 -3.586592 0.284431
C 3.496793 -0.881831 0.007845
H 3.582027 -1.968023 0.157754
H 4.406094 -0.521562 -0.519718
H 3.409013 -0.402540 0.995811
