29
-1198.907637653413
C 2.356480 1.252771 0.336168
C 1.674463 2.422479 0.356335
C 0.254203 2.445619 0.388598
C -0.422335 1.259996 0.446150
C 0.245753 0.006859 0.472114
C 1.730942 -0.099690 0.342834
F 2.335165 3.589107 0.362229
F -0.370900 3.647644 0.307553
C -1.923322 1.332453 0.455589
O -2.601873 1.701538 1.376517
C -0.559789 -1.178851 0.644930
O 0.146582 -2.337463 0.654188
C -0.610123 -3.502228 0.847369
O 2.104341 -0.926123 -0.749910
F 3.709997 1.276893 0.380643
O -2.431676 1.007945 -0.745899
C -3.822910 0.783396 -0.756222
O -1.776490 -1.212704 0.787027
F 2.297506 -0.779783 1.446968
H -4.093406 0.534092 -1.791134
H -4.062989 -0.059394 -0.088894
H -4.379038 1.673391 -0.422338
H -1.348203 -3.648496 0.041303
H 0.101777 -4.339328 0.855539
H -1.164962 -3.474286 1.799513
C 2.976051 -0.436186 -1.720025
H 2.668951 0.557753 -2.099121
H 4.019077 -0.354225 -1.364158
H 2.946726 -1.143178 -2.563867
