29
-1198.943166849375
C 2.062097 0.020780 0.819732
C 1.740321 1.189125 0.145061
C 0.424560 1.405873 -0.265941
C -0.552951 0.454157 -0.016005
C -0.230657 -0.728918 0.678307
C 1.075617 -0.926019 1.111402
F 2.676309 2.090717 -0.078738
F 0.121694 2.547331 -0.864817
C -1.955318 0.728190 -0.487218
O -2.584933 1.710234 -0.189808
C -1.323851 -1.692951 1.036253
O -0.935982 -2.953230 0.960789
C -1.903696 -3.941648 1.323956
O 2.029762 1.623051 -3.082862
F 3.310909 -0.181792 1.215464
O -2.389480 -0.233696 -1.288241
C -3.756142 -0.151404 -1.694938
O -2.432629 -1.338077 1.356241
F 1.434389 -1.991144 1.815983
H -3.932849 -1.012217 -2.348523
H -4.410549 -0.199321 -0.812513
H -3.940358 0.786002 -2.237463
H -2.772413 -3.887456 0.653254
H -1.400776 -4.909023 1.222100
H -2.233039 -3.787756 2.360842
C 2.484276 0.394180 -2.889953
H 1.722497 -0.393436 -2.544482
H 2.955555 -0.131210 -3.790419
H 3.298860 0.259181 -2.093649
