29
-1198.915563229578
C 2.090444 0.845670 0.168763
C 1.388175 1.999512 0.177283
C -0.038906 1.990632 0.167010
C -0.696058 0.797903 0.153519
C -0.003065 -0.451081 0.160360
C 1.483716 -0.515279 0.264128
F 2.015230 3.184536 0.148244
F -0.675559 3.185259 0.099505
C -2.193234 0.843153 0.055502
O -2.944332 1.219309 0.915157
C -0.794977 -1.652612 0.253042
O -0.072700 -2.803289 0.165244
C -0.810424 -3.989531 0.295868
O 2.141007 -1.391765 -0.631936
F 3.436722 0.882614 0.156264
O -2.608661 0.480768 -1.171899
C -3.989861 0.221135 -1.274186
O -2.011373 -1.716958 0.384605
F 1.893527 -1.067013 1.496424
H -4.185123 -0.039572 -2.323155
H -4.251916 -0.624856 -0.619167
H -4.589125 1.098265 -0.984158
H -1.578842 -4.081504 -0.489289
H -0.089646 -4.814683 0.210201
H -1.325683 -4.043267 1.268805
C 1.807599 -1.228469 -1.973469
H 0.748332 -1.471499 -2.175719
H 1.988590 -0.194927 -2.331461
H 2.447365 -1.912926 -2.551670
