29
-1200.409322736404
C 2.021383 1.467138 -0.667521
C 1.230374 2.530152 -0.289662
C -0.108398 2.335603 0.003532
C -0.667517 1.068350 -0.060210
C 0.159476 -0.003365 -0.410346
C 1.498291 0.177574 -0.725850
F 1.754301 3.752226 -0.217212
F -0.805913 3.411535 0.369995
C -2.095221 0.791981 0.287351
O -2.473507 -0.286793 0.677616
C -0.365286 -1.409460 -0.525771
O -0.032526 -2.142681 0.523318
C -0.462493 -3.512834 0.499889
O 2.223783 -0.889118 -1.113862
F 3.288710 1.701987 -0.997193
O -2.888588 1.833309 0.108722
C -4.273455 1.634039 0.437237
O -0.964129 -1.815944 -1.489199
F 3.408970 0.518038 2.186776
H -4.756191 2.588399 0.250100
H -4.698826 0.856767 -0.195828
H -4.371238 1.354186 1.485174
H -0.028129 -4.025693 -0.357207
H -0.101659 -3.946263 1.427887
H -1.549775 -3.560741 0.450294
C 3.529620 -1.062210 -0.518153
H 4.291480 -0.690908 -1.203953
H 3.583496 -0.539893 0.446218
H 3.652968 -2.135383 -0.382139
