29
-1200.389966700333
C 2.023749 0.851748 0.137957
C 1.273011 1.961533 0.070236
C -0.142221 1.875755 0.065753
C -0.740216 0.663159 0.108209
C 0.006414 -0.544904 0.172257
C 1.483665 -0.521654 0.250659
F 1.844636 3.171155 -0.010929
F -0.850825 3.035798 -0.004196
C -2.243080 0.676284 0.088961
O -2.930773 0.818160 1.069864
C -0.728664 -1.784505 0.219596
O 0.032971 -2.888144 0.350742
C -0.664658 -4.129869 0.414676
O 2.186487 -1.404447 -0.598117
F 3.371557 0.953648 0.124253
O -2.714159 0.632957 -1.152728
C -4.140540 0.631465 -1.287587
O -1.950917 -1.878672 0.159042
F 1.950549 -1.029202 1.534987
H -4.335191 0.578874 -2.355142
H -4.561719 -0.237173 -0.781457
H -4.563017 1.543738 -0.867839
H -1.242097 -4.299619 -0.494413
H 0.102979 -4.893076 0.518410
H -1.333433 -4.155728 1.275419
C 1.906704 -1.242426 -1.974839
H 0.864174 -1.482914 -2.203319
H 2.114731 -0.220607 -2.310996
H 2.561107 -1.931811 -2.505648
